You are the validator/fixer subagent.
Repair syntax issues in this SPICE netlist if needed.
Return ONLY corrected netlist text.
Keep behavior equivalent when possible.
Keep the circuit in primitive-device ngspice form only: R, C, L, V, I, D, Q, M, X where needed.
Do not introduce behavioral or controlled sources such as B, E, F, G, or H elements.
Ensure there is one .end at the end.

=== NETLIST TO VALIDATE ===
* 5V single-supply transistor-level Wien bridge oscillator
VDD VDD 0 DC 5

RREF1 VDD Vref 100k
RREF2 Vref 0 100k
CREF Vref 0 1u

ITAIL tail 0 DC 120u
M1 n1 Vinp tail tail NMOS W=80u L=1u
M2 n2 Vinn tail tail NMOS W=80u L=1u
M3 n1 n1 VDD VDD PMOS W=180u L=1u
M4 n2 n1 VDD VDD PMOS W=180u L=1u

RBIAS1 VDD nbias 220k
RBIAS2 nbias 0 180k
M5 ndrv n2 VDD VDD PMOS W=360u L=1u
RDRV ndrv 0 18k
M6 Vout ndrv VDD VDD PMOS W=900u L=1u
M7 Vout nbias 0 0 NMOS W=220u L=1u
ROUT Vout 0 200k
COUT Vout 0 5p

Rw1 Vout nw 10k
Cw1 nw Vinp 10n
Rw2 Vinp Vref 10k
Cw2 Vinp Vref 10n

Rf Vout Vinn 22k
Rg Vinn Vref 10k

.model NMOS NMOS (LEVEL=1 VTO=0.75 KP=220u LAMBDA=0.03)
.model PMOS PMOS (LEVEL=1 VTO=-0.75 KP=90u LAMBDA=0.03)

.ic V(Vout)=2.55 V(Vinp)=2.53 V(Vinn)=2.47 V(n2)=2.2 V(ndrv)=1.8
.tran 1u 5m
.end


=== REPAIR GUIDANCE ===
The previous attempt was evaluated functionally, not just syntactically. Repair the circuit so the measured behavior matches the task intent. If the evaluator reports topology-level failure, change the topology rather than only tweaking values. If a required input node appears only as an internal node, add the missing independent source. If the evaluator reports the same failure repeatedly, avoid regenerating the identical circuit.

Use evaluator feedback as a design-debug signal. If the report says the circuit is not functioning correctly, identify the missing functional mechanism: biasing, load choice, feedback polarity, reference level, insufficient gain, or absent frequency-selective element. For waveform tasks, repair the netlist so the requested waveform or response is visible in the configured analysis rather than merely producing a valid operating point.

For oscillator retry failures, if the report says 'IC on non-existent node - vinp/vinn' or amplitude is too small, the startup nodes were not exposed or the loop gain/phase conditions were wrong. Repair by naming the internal differential input nodes Vinp and Vinn, centering the bias network near mid-supply, ensuring the feedback network connects to the correct op-amp input polarity, and removing overly hard limiter/clamp behavior that suppresses or distorts the analog oscillation. If the retry has drifted into behavioral or controlled-source amplifier shortcuts, replace them with a real biased transistor gain stage instead of tuning the shortcut. For Wien-bridge retries, simplify rather than elaborate: remove extra driver/buffer stages, merge split feedback branches into one clear gain-setting path when possible, and keep the bridge plus amplifier easy to reason about so only one dominant oscillation mode remains.

=== TOPOLOGY ISSUES DETECTED BEFORE SIMULATION ===
- missing_explicit_mid_supply_reference_source
Repair the topology before returning the netlist.

=== REPAIR FOCUS ===
General oscillator/VCO repair focus: preserve startup-capable internal nodes, include an explicit mid-supply reference source, maintain correct feedback polarity, give the active stage enough loop gain to overcome passive losses, and avoid output rail clamps or behavioral/controlled-source shortcuts that suppress analog startup. For Wien-bridge structures, keep a clean bridge from Vout to the non-inverting side and avoid hard clamp/inverter behavior. Add a real mid-supply reference source for single-supply oscillators and tie feedback/bias networks to it.
